LAMMPS (29 Aug 2024 - Development - 5b9cae1)
units         metal
atom_style    atomic
atom_modify   map yes
newton        on

boundary p p p

read_data structure.data
Reading data file ...
  triclinic box = (0 0 0) to (53.8902 46.670282 44.024) with tilt (-26.9451 0 0)
  reading atoms ...
  5184 atoms

variable        temperature equal 300.0
variable        temperature2 equal 300.0

variable        tempDamp equal 100.0 # approx 0.1 ps

variable        pressure equal 1.00
variable        pressureDamp equal 500.0

variable        seed world 14218

mass            1 12.011   # C
mass            2 1.007    # H
mass            3 126.905  # I
mass            4 14.0061  # N
mass            5 207.200  # Pb

pair_style  grace
[GRACE] TF version: 2.16.2
[GRACE] Neighbour padding is ON, padding fraction: 0.01, max padding fraction before reduction: 0.2, max number of reduction(s): 10

pair_coeff * * /mnt/scratch2/q13camb_scratch/perovskites/CsPbI3_relaxed_structures/Grace/GRACE-1L-train/pero_1L_H100/restart_16_save/seed/1/saved_model C H I N Pb
[GRACE] Loading /mnt/scratch2/q13camb_scratch/perovskites/CsPbI3_relaxed_structures/Grace/GRACE-1L-train/pero_1L_H100/restart_16_save/seed/1/saved_model
[GRACE] Model loaded
[GRACE] Mapping LAMMPS atom type #1(C) -> ACE species type #5
[GRACE] Mapping LAMMPS atom type #2(H) -> ACE species type #12
[GRACE] Mapping LAMMPS atom type #3(I) -> ACE species type #13
[GRACE] Mapping LAMMPS atom type #4(N) -> ACE species type #18
[GRACE] Mapping LAMMPS atom type #5(Pb) -> ACE species type #22

neighbor 1.0 bin
neigh_modify delay 5 every 1

write_dump all custom out.0.lammpstrj id type x y z fx fy fz

variable freq equal 100
variable dt equal 0.001

min_style cg
fix 1 all box/relax iso 0.0 vmax 0.005
minimize 1e-8 1e-8  100000 1000000

CITE-CITE-CITE-CITE-CITE-CITE-CITE-CITE-CITE-CITE-CITE-CITE-CITE

Your simulation uses code contributions which should be cited:

- Type Label Framework: https://doi.org/10.1021/acs.jpcb.3c08419

@Article{Gissinger24,
 author = {Jacob R. Gissinger, Ilia Nikiforov, Yaser Afshar, Brendon Waters, Moon-ki Choi, Daniel S. Karls, Alexander Stukowski, Wonpil Im, Hendrik Heinz, Axel Kohlmeyer, and Ellad B. Tadmor},
 title = {Type Label Framework for Bonded Force Fields in LAMMPS},
 journal = {J. Phys. Chem. B},
 year =    2024,
 volume =  128,
 number =  13,
 pages =   {3282â€“-3297}
}

CITE-CITE-CITE-CITE-CITE-CITE-CITE-CITE-CITE-CITE-CITE-CITE-CITE

 (src/min.cpp:219)
Step          Temp          E_pair         E_mol          TotEng         Press          Volume
0   0             -77071.466      0             -77071.466      3175.5492      110723.48
Loop time of 4.61267 on 1 procs for 43 steps with 5184 atoms

Minimization stats:
  Stopping criterion = energy tolerance
  Energy initial, next-to-last, final =
  Force two-norm initial, final = 659.86861 15.11944
  Force max component initial, final = 658.36913 10.987355
  Final line search alpha, max atom move = 0.00052768294 0.0057978396
  Iterations, force evaluations = 43 85

write_data      data.relax nocoeff nofix
System init for write_data ...
unfix 1

thermo          100
thermo_style    custom step temp pe ke etotal press lx ly lz xy xz yz
restart         100 restart.0 restart.2

timestep        0.001

velocity        all create 300 14218 dist gaussian

# NPT
dump            myDump3 all atom 100 out.2.lammpstrj
fix             1 all temp/csvr 300 300 0.5 14218
fix             2 all nph tri 1 1 $(500.0*dt)
fix             2 all nph tri 1 1 0.5
fix             3 all momentum 10000 linear 1 1 1

run             100000
Step          Temp          PotEng         KinEng         TotEng         Press            Lx             Ly             Lz             Xy             Xz             Yz
43   300           -77141.587      200.9866      -76940.6        1921.791       54.543172      47.235772      44.557426     -27.271586      0              0
Averages over the last 501 of 1002 rows, steps 50100 to 100043:
Temp PotEng KinEng TotEng Press Lx Ly Lz Xy Xz Yz
300.055 -77062.2 201.023 -76861.2 4.81847 54.279 47.0166 44.3266 -27.1333 -0.018402 -0.0281079
Loop time of 5080.62 on 1 procs for 100000 steps with 5184 atoms

unfix           1
unfix           2
unfix           3

undump          myDump3

write_restart   restart.file
System init for write_restart ...
write_data      data.eq
System init for write_data ...
[GRACE:debug, proc #0]: Data preparation timer: 4.64628e+08 mcs, graph execution time: 4.45487e+09 mcs, data preparation time fraction: 9.44 %
